LVNetwork4Feeders/LVNetwork4Feeders-lines.dss
new line.line_MG1_T1_F1 bus1=bus_MG1_T1 bus2=bus_MG1_T1_F1_B1 phases=3 length=1 units=m linecode=4c_240sq
new line.line_MG1_T1_F2 bus1=bus_MG1_T1 bus2=bus_MG1_T1_F2_B1 phases=3 length=1 units=m linecode=4c_240sq
new line.line_MG1_T1_F3 bus1=bus_MG1_T1 bus2=bus_MG1_T1_F3_B1 phases=3 length=1 units=m linecode=4c_240sq
new line.line_MG1_T1_F4 bus1=bus_MG1_T1 bus2=bus_MG1_T1_F4_B1 phases=3 length=1 units=m linecode=4c_240sq
new line.line_MG1_T1_F5 bus1=bus_MG1_T1 bus2=bus_MG1_T1_F5_B1 phases=3 length=1 units=m linecode=4c_240sq
new line.line_MG1_T1_F1_L1 bus1=bus_MG1_T1_F1_B1 bus2=bus_MG1_T1_F1_B2 phases=3 length=13.05882353 units=m linecode=4c_240sq
new line.line_MG1_T1_F1_L2 bus1=bus_MG1_T1_F1_B2 bus2=bus_MG1_T1_F1_B3 phases=3 length=13.05882353 units=m linecode=4c_240sq
new line.line_MG1_T1_F1_L3 bus1=bus_MG1_T1_F1_B3 bus2=bus_MG1_T1_F1_B4 phases=3 length=13.05882353 units=m linecode=4c_240sq
new line.line_MG1_T1_F1_L4 bus1=bus_MG1_T1_F1_B4 bus2=bus_MG1_T1_F1_B5 phases=3 length=13.05882353 units=m linecode=4c_240sq
new line.line_MG1_T1_F1_L5 bus1=bus_MG1_T1_F1_B5 bus2=bus_MG1_T1_F1_B6 phases=3 length=13.05882353 units=m linecode=4c_240sq
new line.line_MG1_T1_F1_L6 bus1=bus_MG1_T1_F1_B6 bus2=bus_MG1_T1_F1_B7 phases=3 length=13.05882353 units=m linecode=4c_240sq
new line.line_MG1_T1_F1_L7 bus1=bus_MG1_T1_F1_B7 bus2=bus_MG1_T1_F1_B8 phases=3 length=13.05882353 units=m linecode=4c_240sq
new line.line_MG1_T1_F1_L8 bus1=bus_MG1_T1_F1_B8 bus2=bus_MG1_T1_F1_B9 phases=3 length=13.05882353 units=m linecode=4c_240sq
new line.line_MG1_T1_F1_L9 bus1=bus_MG1_T1_F1_B9 bus2=bus_MG1_T1_F1_B10 phases=3 length=13.05882353 units=m linecode=4c_240sq
new line.line_MG1_T1_F1_L10 bus1=bus_MG1_T1_F1_B10 bus2=bus_MG1_T1_F1_B11 phases=3 length=13.05882353 units=m linecode=4c_240sq
new line.line_MG1_T1_F1_L11 bus1=bus_MG1_T1_F1_B11 bus2=bus_MG1_T1_F1_B12 phases=3 length=13.05882353 units=m linecode=4c_240sq
new line.line_MG1_T1_F1_L12 bus1=bus_MG1_T1_F1_B12 bus2=bus_MG1_T1_F1_B13 phases=3 length=13.05882353 units=m linecode=4c_240sq
new line.line_MG1_T1_F1_L13 bus1=bus_MG1_T1_F1_B13 bus2=bus_MG1_T1_F1_B14 phases=3 length=13.05882353 units=m linecode=4c_240sq
new line.line_MG1_T1_F1_L14 bus1=bus_MG1_T1_F1_B14 bus2=bus_MG1_T1_F1_B15 phases=3 length=13.05882353 units=m linecode=4c_240sq
new line.line_MG1_T1_F1_L15 bus1=bus_MG1_T1_F1_B15 bus2=bus_MG1_T1_F1_B16 phases=3 length=13.05882353 units=m linecode=4c_240sq
new line.line_MG1_T1_F1_L16 bus1=bus_MG1_T1_F1_B16 bus2=bus_MG1_T1_F1_B17 phases=3 length=13.05882353 units=m linecode=4c_240sq
new line.line_MG1_T1_F1_L17 bus1=bus_MG1_T1_F1_B17 bus2=bus_MG1_T1_F1_B18 phases=3 length=12.14285714 units=m linecode=4c_240sq
new line.line_MG1_T1_F1_L18 bus1=bus_MG1_T1_F1_B18 bus2=bus_MG1_T1_F1_B19 phases=3 length=12.14285714 units=m linecode=4c_240sq
new line.line_MG1_T1_F1_L19 bus1=bus_MG1_T1_F1_B19 bus2=bus_MG1_T1_F1_B20 phases=3 length=12.14285714 units=m linecode=4c_240sq
new line.line_MG1_T1_F1_L20 bus1=bus_MG1_T1_F1_B16 bus2=bus_MG1_T1_F1_B21 phases=3 length=12.14285714 units=m linecode=4c_240sq
new line.line_MG1_T1_F1_L21 bus1=bus_MG1_T1_F1_B21 bus2=bus_MG1_T1_F1_B22 phases=3 length=12.14285714 units=m linecode=4c_240sq
new line.line_MG1_T1_F1_L22 bus1=bus_MG1_T1_F1_B22 bus2=bus_MG1_T1_F1_B23 phases=3 length=12.14285714 units=m linecode=4c_240sq
new line.line_MG1_T1_F1_L23 bus1=bus_MG1_T1_F1_B23 bus2=bus_MG1_T1_F1_B24 phases=3 length=12.14285714 units=m linecode=4c_240sq
new line.line_MG1_T1_F2_L1 bus1=bus_MG1_T1_F2_B1 bus2=bus_MG1_T1_F2_B2 phases=3 length=251 units=m linecode=4c_240sq
new line.line_MG1_T1_F2_L2 bus1=bus_MG1_T1_F2_B2 bus2=bus_MG1_T1_F2_B3 phases=3 length=20 units=m linecode=4c_240sq
new line.line_MG1_T1_F2_L3 bus1=bus_MG1_T1_F2_B3 bus2=bus_MG1_T1_F2_B4 phases=3 length=8 units=m linecode=4c_240sq
new line.line_MG1_T1_F2_L4 bus1=bus_MG1_T1_F2_B4 bus2=bus_MG1_T1_F2_B5 phases=3 length=8 units=m linecode=4c_240sq
new line.line_MG1_T1_F2_L5 bus1=bus_MG1_T1_F2_B1 bus2=bus_MG1_T1_F2_B6 phases=3 length=12 units=m linecode=4c_240sq
new line.line_MG1_T1_F2_L6 bus1=bus_MG1_T1_F2_B6 bus2=bus_MG1_T1_F2_B7 phases=3 length=12 units=m linecode=4c_240sq
new line.line_MG1_T1_F2_L7 bus1=bus_MG1_T1_F2_B7 bus2=bus_MG1_T1_F2_B8 phases=3 length=12 units=m linecode=4c_240sq
new line.line_MG1_T1_F2_L8 bus1=bus_MG1_T1_F2_B8 bus2=bus_MG1_T1_F2_B9 phases=3 length=12 units=m linecode=4c_240sq
new line.line_MG1_T1_F2_L9 bus1=bus_MG1_T1_F2_B9 bus2=bus_MG1_T1_F2_B10 phases=3 length=12 units=m linecode=4c_240sq
new line.line_MG1_T1_F2_L10 bus1=bus_MG1_T1_F2_B10 bus2=bus_MG1_T1_F2_B11 phases=3 length=12 units=m linecode=4c_240sq
new line.line_MG1_T1_F2_L11 bus1=bus_MG1_T1_F2_B11 bus2=bus_MG1_T1_F2_B12 phases=3 length=12 units=m linecode=4c_240sq
new line.line_MG1_T1_F2_L12 bus1=bus_MG1_T1_F2_B12 bus2=bus_MG1_T1_F2_B13 phases=3 length=12.4 units=m linecode=4c_240sq
new line.line_MG1_T1_F2_L13 bus1=bus_MG1_T1_F2_B13 bus2=bus_MG1_T1_F2_B14 phases=3 length=12.4 units=m linecode=4c_240sq
new line.line_MG1_T1_F2_L14 bus1=bus_MG1_T1_F2_B14 bus2=bus_MG1_T1_F2_B15 phases=3 length=12.4 units=m linecode=4c_240sq
new line.line_MG1_T1_F2_L15 bus1=bus_MG1_T1_F2_B15 bus2=bus_MG1_T1_F2_B16 phases=3 length=12.4 units=m linecode=4c_240sq
new line.line_MG1_T1_F2_L16 bus1=bus_MG1_T1_F2_B16 bus2=bus_MG1_T1_F2_B17 phases=3 length=12.4 units=m linecode=4c_240sq
new line.line_MG1_T1_F2_L17 bus1=bus_MG1_T1_F2_B11 bus2=bus_MG1_T1_F2_B18 phases=3 length=55 units=m linecode=4c_240sq
new line.line_MG1_T1_F2_L18 bus1=bus_MG1_T1_F2_B18 bus2=bus_MG1_T1_F2_B19 phases=3 length=11.25 units=m linecode=4c_240sq
new line.line_MG1_T1_F2_L19 bus1=bus_MG1_T1_F2_B19 bus2=bus_MG1_T1_F2_B20 phases=3 length=11.25 units=m linecode=4c_240sq
new line.line_MG1_T1_F2_L20 bus1=bus_MG1_T1_F2_B20 bus2=bus_MG1_T1_F2_B21 phases=3 length=11.25 units=m linecode=4c_240sq
new line.line_MG1_T1_F2_L21 bus1=bus_MG1_T1_F2_B21 bus2=bus_MG1_T1_F2_B22 phases=3 length=11.25 units=m linecode=4c_240sq
new line.line_MG1_T1_F3_L1 bus1=bus_MG1_T1_F3_B1 bus2=bus_MG1_T1_F3_B2 phases=3 length=300 units=m linecode=4c_240sq
new line.line_MG1_T1_F3_L2 bus1=bus_MG1_T1_F3_B2 bus2=bus_MG1_T1_F3_B3 phases=3 length=15 units=m linecode=4c_240sq
new line.line_MG1_T1_F3_L3 bus1=bus_MG1_T1_F3_B3 bus2=bus_MG1_T1_F3_B4 phases=3 length=15 units=m linecode=4c_240sq
new line.line_MG1_T1_F3_L4 bus1=bus_MG1_T1_F3_B4 bus2=bus_MG1_T1_F3_B5 phases=3 length=15 units=m linecode=4c_240sq
new line.line_MG1_T1_F3_L5 bus1=bus_MG1_T1_F3_B5 bus2=bus_MG1_T1_F3_B6 phases=3 length=15 units=m linecode=4c_240sq
new line.line_MG1_T1_F3_L6 bus1=bus_MG1_T1_F3_B6 bus2=bus_MG1_T1_F3_B7 phases=3 length=14 units=m linecode=4c_240sq
new line.line_MG1_T1_F3_L7 bus1=bus_MG1_T1_F3_B7 bus2=bus_MG1_T1_F3_B8 phases=3 length=14 units=m linecode=4c_240sq
new line.line_MG1_T1_F3_L8 bus1=bus_MG1_T1_F3_B8 bus2=bus_MG1_T1_F3_B9 phases=3 length=14 units=m linecode=4c_240sq
new line.line_MG1_T1_F3_L9 bus1=bus_MG1_T1_F3_B9 bus2=bus_MG1_T1_F3_B10 phases=3 length=14 units=m linecode=4c_240sq
new line.line_MG1_T1_F3_L10 bus1=bus_MG1_T1_F3_B10 bus2=bus_MG1_T1_F3_B11 phases=3 length=14 units=m linecode=4c_240sq
new line.line_MG1_T1_F3_L11 bus1=bus_MG1_T1_F3_B5 bus2=bus_MG1_T1_F3_B12 phases=3 length=23 units=m linecode=4c_240sq
new line.line_MG1_T1_F4_L1 bus1=bus_MG1_T1_F4_B1 bus2=bus_MG1_T1_F4_B2 phases=3 length=25 units=m linecode=4c_240sq
new line.line_MG1_T1_F4_L2 bus1=bus_MG1_T1_F4_B2 bus2=bus_MG1_T1_F4_B3 phases=3 length=9.583333333 units=m linecode=4c_240sq
new line.line_MG1_T1_F4_L3 bus1=bus_MG1_T1_F4_B3 bus2=bus_MG1_T1_F4_B4 phases=3 length=9.583333333 units=m linecode=4c_240sq
new line.line_MG1_T1_F4_L4 bus1=bus_MG1_T1_F4_B4 bus2=bus_MG1_T1_F4_B5 phases=3 length=9.583333333 units=m linecode=4c_240sq
new line.line_MG1_T1_F4_L5 bus1=bus_MG1_T1_F4_B5 bus2=bus_MG1_T1_F4_B6 phases=3 length=9.583333333 units=m linecode=4c_240sq
new line.line_MG1_T1_F4_L6 bus1=bus_MG1_T1_F4_B6 bus2=bus_MG1_T1_F4_B7 phases=3 length=9.583333333 units=m linecode=4c_240sq
new line.line_MG1_T1_F4_L7 bus1=bus_MG1_T1_F4_B7 bus2=bus_MG1_T1_F4_B8 phases=3 length=9.583333333 units=m linecode=4c_240sq
new line.line_MG1_T1_F4_L8 bus1=bus_MG1_T1_F4_B8 bus2=bus_MG1_T1_F4_B9 phases=3 length=9.583333333 units=m linecode=4c_240sq
new line.line_MG1_T1_F4_L9 bus1=bus_MG1_T1_F4_B9 bus2=bus_MG1_T1_F4_B10 phases=3 length=9.583333333 units=m linecode=4c_240sq
new line.line_MG1_T1_F4_L10 bus1=bus_MG1_T1_F4_B10 bus2=bus_MG1_T1_F4_B11 phases=3 length=9.583333333 units=m linecode=4c_240sq
new line.line_MG1_T1_F4_L11 bus1=bus_MG1_T1_F4_B11 bus2=bus_MG1_T1_F4_B12 phases=3 length=9.583333333 units=m linecode=4c_240sq
new line.line_MG1_T1_F4_L12 bus1=bus_MG1_T1_F4_B12 bus2=bus_MG1_T1_F4_B13 phases=3 length=9.583333333 units=m linecode=4c_240sq
new line.line_MG1_T1_F4_L13 bus1=bus_MG1_T1_F4_B13 bus2=bus_MG1_T1_F4_B14 phases=3 length=9.583333333 units=m linecode=4c_240sq
new line.line_MG1_T1_F4_L14 bus1=bus_MG1_T1_F4_B14 bus2=bus_MG1_T1_F4_B15 phases=3 length=11.66666667 units=m linecode=4c_240sq
new line.line_MG1_T1_F4_L15 bus1=bus_MG1_T1_F4_B15 bus2=bus_MG1_T1_F4_B16 phases=3 length=11.66666667 units=m linecode=4c_240sq
new line.line_MG1_T1_F4_L16 bus1=bus_MG1_T1_F4_B16 bus2=bus_MG1_T1_F4_B17 phases=3 length=11.66666667 units=m linecode=4c_240sq
new line.line_MG1_T1_F4_L17 bus1=bus_MG1_T1_F4_B17 bus2=bus_MG1_T1_F4_B18 phases=3 length=11.66666667 units=m linecode=4c_240sq
new line.line_MG1_T1_F4_L18 bus1=bus_MG1_T1_F4_B18 bus2=bus_MG1_T1_F4_B19 phases=3 length=11.66666667 units=m linecode=4c_240sq
new line.line_MG1_T1_F4_L19 bus1=bus_MG1_T1_F4_B19 bus2=bus_MG1_T1_F4_B20 phases=3 length=11.66666667 units=m linecode=4c_240sq
new line.line_MG1_T1_F4_L20 bus1=bus_MG1_T1_F4_B20 bus2=bus_MG1_T1_F4_B21 phases=3 length=11.66666667 units=m linecode=4c_240sq
new line.line_MG1_T1_F4_L21 bus1=bus_MG1_T1_F4_B21 bus2=bus_MG1_T1_F4_B22 phases=3 length=11.66666667 units=m linecode=4c_240sq
new line.line_MG1_T1_F4_L22 bus1=bus_MG1_T1_F4_B13 bus2=bus_MG1_T1_F4_B23 phases=3 length=18 units=m linecode=4c_240sq